Version 4
SHEET 1 880 680
WIRE 64 80 16 80
WIRE 224 80 144 80
WIRE 352 80 224 80
WIRE 16 96 16 80
WIRE 224 96 224 80
WIRE 16 192 16 176
WIRE 224 192 224 160
WIRE 224 192 16 192
WIRE 352 192 224 192
WIRE 224 208 224 192
FLAG 224 208 0
FLAG 224 80 V
SYMBOL res 160 64 R90
WINDOW 0 0 56 VBottom 2
WINDOW 3 32 56 VTop 2
SYMATTR InstName R1
SYMATTR Value 3506
SYMBOL cap 208 96 R0
SYMATTR InstName C1
SYMATTR Value 9.08n
SYMBOL voltage 16 80 R0
WINDOW 123 0 0 Left 0
WINDOW 39 0 0 Left 0
SYMATTR InstName V1
SYMATTR Value SINE(0 5 500000)
TEXT -32 216 Left 2 !.tran 30u
